Program Version,EnergyPlus, Version 24.2.0-94a887817b, YMD=2025.06.28 13:51,
   ** Warning ** ManageSizing: The ZoneComponentLoadSummary report was requested but no sizing objects were found so that report cannot be generated.
   ************* Testing Individual Branch Integrity
   ************* All Branches passed integrity testing
   ************* Testing Individual Supply Air Path Integrity
   ************* All Supply Air Paths passed integrity testing
   ************* Testing Individual Return Air Path Integrity
   ************* All Return Air Paths passed integrity testing
   ************* No node connection errors were found.
   ************* Beginning Simulation
   ** Warning ** SimHVAC: Maximum iterations (20) exceeded for all HVAC loops, at WINTER DESIGN DAY IN (MID) UK, 01/15 00:00 - 00:15
   **   ~~~   ** The solution for zone HVAC equipment did not appear to converge
   **   ~~~   ** ...use Output:Diagnostics,DisplayExtraWarnings; to show more details on each max iteration exceeded.
   ** Warning ** SimHVAC: Maximum iterations (20) exceeded for all HVAC loops, at WINTER DESIGN DAY IN (MID) UK, 01/15 00:15 - 00:30
   **   ~~~   ** The solution for zone HVAC equipment did not appear to converge
   ** Warning ** SimHVAC: Maximum iterations (20) exceeded for all HVAC loops, at WINTER DESIGN DAY IN (MID) UK, 01/15 00:30 - 00:45
   **   ~~~   ** The solution for zone HVAC equipment did not appear to converge
   ** Warning ** SimHVAC: Maximum iterations (20) exceeded for all HVAC loops, at WINTER DESIGN DAY IN (MID) UK, 01/15 00:45 - 01:00
   **   ~~~   ** The solution for zone HVAC equipment did not appear to converge
   ** Warning ** SimHVAC: Maximum iterations (20) exceeded for all HVAC loops, at WINTER DESIGN DAY IN (MID) UK, 01/15 01:00 - 01:15
   **   ~~~   ** The solution for zone HVAC equipment did not appear to converge
   ** Warning ** SimHVAC: Maximum iterations (20) exceeded for all HVAC loops, at WINTER DESIGN DAY IN (MID) UK, 01/15 01:15 - 01:30
   **   ~~~   ** The solution for zone HVAC equipment did not appear to converge
   ** Warning ** SimHVAC: Maximum iterations (20) exceeded for all HVAC loops, at WINTER DESIGN DAY IN (MID) UK, 01/15 01:30 - 01:45
   **   ~~~   ** The solution for zone HVAC equipment did not appear to converge
   ** Warning ** SimHVAC: Maximum iterations (20) exceeded for all HVAC loops, at WINTER DESIGN DAY IN (MID) UK, 01/15 01:45 - 02:00
   **   ~~~   ** The solution for zone HVAC equipment did not appear to converge
   ** Warning ** SimHVAC: Maximum iterations (20) exceeded for all HVAC loops, at WINTER DESIGN DAY IN (MID) UK, 01/15 02:00 - 02:15
   **   ~~~   ** The solution for zone HVAC equipment did not appear to converge
   ** Warning ** SimHVAC: Maximum iterations (20) exceeded for all HVAC loops, at WINTER DESIGN DAY IN (MID) UK, 01/15 02:15 - 02:30
   **   ~~~   ** The solution for zone HVAC equipment did not appear to converge
   ** Warning ** SimHVAC: Maximum iterations (20) exceeded for all HVAC loops, at WINTER DESIGN DAY IN (MID) UK, 01/15 02:30 - 02:45
   **   ~~~   ** The solution for zone HVAC equipment did not appear to converge
   ** Warning ** SimHVAC: Maximum iterations (20) exceeded for all HVAC loops, at WINTER DESIGN DAY IN (MID) UK, 01/15 02:45 - 03:00
   **   ~~~   ** The solution for zone HVAC equipment did not appear to converge
   ** Warning ** SimHVAC: Maximum iterations (20) exceeded for all HVAC loops, at WINTER DESIGN DAY IN (MID) UK, 01/15 03:00 - 03:15
   **   ~~~   ** The solution for zone HVAC equipment did not appear to converge
   ** Warning ** SimHVAC: Maximum iterations (20) exceeded for all HVAC loops, at WINTER DESIGN DAY IN (MID) UK, 01/15 03:15 - 03:30
   **   ~~~   ** The solution for zone HVAC equipment did not appear to converge
   ** Warning ** WriteVeriSumTable: InputVerificationsAndResultsSummary: Wall area based on [>=60,<=120] degrees (tilt) as walls
   **   ~~~   ** differs ~46.5% from user entered Wall class surfaces. Degree calculation based on ASHRAE 90.1 wall definitions.
   **   ~~~   ** Total wall area by ASHRAE 90.1 definition=73.600 m2.
   **   ~~~   ** Total exterior wall area from user entered classes=137.600 m2.
   **   ~~~   ** Total ground contact wall area from user entered classes=0.000 m2.
   ************* Simulation Error Summary *************
   *************
   ************* ===== Recurring Error Summary =====
   ************* The following recurring error messages occurred.
   *************
   *************  ** Warning ** SimHVAC: Exceeding Maximum iterations for all HVAC loops, during WINTER DESIGN DAY IN (MID) UK continues
   *************  **   ~~~   **   This error occurred 82 total times;
   *************  **   ~~~   **   during Warmup 0 times;
   *************  **   ~~~   **   during Sizing 0 times.
   *************
   ************* EnergyPlus Warmup Error Summary. During Warmup: 0 Warning; 0 Severe Errors.
   ************* EnergyPlus Sizing Error Summary. During Sizing: 1 Warning; 0 Severe Errors.
   ************* EnergyPlus Completed Successfully-- 98 Warning; 0 Severe Errors; Elapsed Time=00hr 00min  0.18sec
