Program Version,EnergyPlus, Version 24.2.0-94a887817b, YMD=2025.06.04 13:01,
   ** Warning ** ManageSizing: The ZoneComponentLoadSummary report was requested but no sizing objects were found so that report cannot be generated.
   ** Warning ** ManageSizing: For a zone sizing run, there must be at least 1 Sizing:Zone input object. SimulationControl Zone Sizing option ignored.
   ** Warning ** ManageSizing: For a plant sizing run, there must be at least 1 Sizing:Plant object input. SimulationControl Plant Sizing option ignored.
   ************* Note that the following warning(s) may/will occur if you have not enclosed your zone completely.
   ** Warning ** Entered Volume entered for Zone="ZONE ONE" significantly different from calculated Volume
   **   ~~~   ** Entered Zone Volume value=147.20, Calculated Zone Volume value=49.07, entered volume will be used in calculations.
   ** Warning ** CheckUsedConstructions: There are 1 nominally unused constructions in input.
   **   ~~~   ** Each Unused construction is shown.
   ************* Construction=PARTITION
   ** Warning ** ComputeIntSWAbsorbFactors: Sum of area times inside solar absorption for all surfaces is zero in Enclosure: ZONE ONE
   ** Warning ** Zone areas*inside surface emissivities are summing to zero, for Zone="ZONE ONE"
   **   ~~~   ** As a result, MRT will be set to MAT for that zone
   ** Warning ** Enclosure areas*inside surface emissivities are summing to zero, for Enclosure="ZONE ONE"
   **   ~~~   ** As a result, MRT will be set to the volume weighted average MAT for that enclosure
   ************* Testing Individual Branch Integrity
   ************* All Branches passed integrity testing
   ************* Testing Individual Supply Air Path Integrity
   ************* All Supply Air Paths passed integrity testing
   ************* Testing Individual Return Air Path Integrity
   ************* All Return Air Paths passed integrity testing
   ************* No node connection errors were found.
   ************* Beginning Simulation
   ** Warning ** WriteVeriSumTable: InputVerificationsAndResultsSummary: Wall area based on [>=60,<=120] degrees (tilt) as walls
   **   ~~~   ** differs ~46.5% from user entered Wall class surfaces. Degree calculation based on ASHRAE 90.1 wall definitions.
   **   ~~~   ** Total wall area by ASHRAE 90.1 definition=73.600 m2.
   **   ~~~   ** Total exterior wall area from user entered classes=137.600 m2.
   **   ~~~   ** Total ground contact wall area from user entered classes=0.000 m2.
   ************* Simulation Error Summary *************
   *************
   ************* ===== Final Error Summary =====
   ************* The following error categories occurred.  Consider correcting or noting.
   ************* Nominally Unused Constructions
   ************* ..The nominally unused constructions warning is provided to alert you to potential conditions that can cause
   ************* ..extra time during simulation. Each construction is calculated by the algorithm indicated in the HeatBalanceAlgorithm
   ************* ..object. You may remove the constructions indicated (when you use the DisplayExtraWarnings option).
   *************
   ************* EnergyPlus Warmup Error Summary. During Warmup: 0 Warning; 0 Severe Errors.
   ************* EnergyPlus Sizing Error Summary. During Sizing: 3 Warning; 0 Severe Errors.
   ************* EnergyPlus Completed Successfully-- 9 Warning; 0 Severe Errors; Elapsed Time=00hr 00min  0.11sec
