  0
SECTION
  2
ENTITIES
999
DXF created from EnergyPlus
999
Program Version,EnergyPlus, Version 9.4.0-998c4b761e, YMD=2025.09.03 14:02
999
Polygon Action,TRIANGULATE3DFACE
999
Color Scheme,Default
999
Text - True North
  0
TEXT
  8
1
  6
Continuous
 62
  3
 10
      -11.14061
 20
        3.08796
 30
        0.10000
 40
 .25
  1
True North
 41
 0.0
  7
MONOTXT
210
0.0
220
0.0
230
1.0
999
Text - Building Title
  0
TEXT
  8
1
  6
Continuous
 62
  3
 10
      -14.14061
 20
       -0.91204
 30
        0.10000
 40
 .4
  1
Building - Building 1
 41
 0.0
  7
MONOTXT
210
0.0
220
0.0
230
1.0
999
North Arrow Stem
  0
3DFACE
  8
1
 62
  3
 10
      -10.14061
 20
        3.08796
 30
        0.10000
 11
      -10.14061
 21
        3.08796
 31
        0.00000
 12
      -10.14061
 22
        0.08796
 32
        0.00000
 13
      -10.14061
 23
        0.08796
 33
        0.10000
999
North Arrow Head 1
  0
3DFACE
  8
1
 62
  3
 10
      -10.14061
 20
        3.08796
 30
        0.10000
 11
      -10.14061
 21
        3.08796
 31
        0.00000
 12
      -10.64061
 22
        2.22193
 32
        0.00000
 13
      -10.64061
 23
        2.22193
 33
        0.10000
999
North Arrow Head 2
  0
3DFACE
  8
1
 62
  3
 10
      -10.14061
 20
        3.08796
 30
        0.10000
 11
      -10.14061
 21
        3.08796
 31
        0.00000
 12
       -9.64061
 22
        2.22193
 32
        0.00000
 13
       -9.64061
 23
        2.22193
 33
        0.10000
999
North Arrow Side 1
  0
3DFACE
  8
1
 62
  3
 10
      -10.64061
 20
        4.58796
 30
        0.10000
 11
      -10.64061
 21
        4.58796
 31
        0.00000
 12
      -10.64061
 22
        3.58796
 32
        0.00000
 13
      -10.64061
 23
        3.58796
 33
        0.10000
999
North Arrow Side 2
  0
3DFACE
  8
1
 62
  3
 10
      -10.64061
 20
        4.58796
 30
        0.10000
 11
      -10.64061
 21
        4.58796
 31
        0.00000
 12
       -9.64061
 22
        3.58796
 32
        0.00000
 13
       -9.64061
 23
        3.58796
 33
        0.10000
999
North Arrow Side 3
  0
3DFACE
  8
1
 62
  3
 10
       -9.64061
 20
        4.58796
 30
        0.10000
 11
       -9.64061
 21
        4.58796
 31
        0.00000
 12
       -9.64061
 22
        3.58796
 32
        0.00000
 13
       -9.64061
 23
        3.58796
 33
        0.10000
999
Zone Names
999
Zone=1:BLOCK1_ZONE1
999
BLOCK1:ZONE1:BLOCK1:ZONE1_WALL_2_0_0
  0
3DFACE
  8
BLOCK1_ZONE1
 62
 43
 10
        7.85939
 20
        0.08796
 30
        2.30000
 11
        7.85939
 21
        0.08796
 31
        0.00000
 12
        7.85939
 22
        8.08796
 32
        0.00000
 13
        7.85939
 23
        8.08796
 33
        2.30000
999
BLOCK1:ZONE1:BLOCK1:ZONE1_WALL_3_0_0
  0
3DFACE
  8
BLOCK1_ZONE1
 62
 43
 10
        7.85939
 20
        8.08796
 30
        2.30000
 11
        7.85939
 21
        8.08796
 31
        0.00000
 12
       -0.14061
 22
        8.08796
 32
        0.00000
 13
       -0.14061
 23
        8.08796
 33
        2.30000
999
BLOCK1:ZONE1:BLOCK1:ZONE1_WALL_4_0_0
  0
3DFACE
  8
BLOCK1_ZONE1
 62
 43
 10
       -0.14061
 20
        8.08796
 30
        2.30000
 11
       -0.14061
 21
        8.08796
 31
        0.00000
 12
       -0.14061
 22
        0.08796
 32
        0.00000
 13
       -0.14061
 23
        0.08796
 33
        2.30000
999
BLOCK1:ZONE1:BLOCK1:ZONE1_WALL_5_0_0
  0
3DFACE
  8
BLOCK1_ZONE1
 62
 43
 10
       -0.14061
 20
        0.08796
 30
        2.30000
 11
       -0.14061
 21
        0.08796
 31
        0.00000
 12
        7.85939
 22
        0.08796
 32
        0.00000
 13
        7.85939
 23
        0.08796
 33
        2.30000
999
BLOCK1:ZONE1:BLOCK1:ZONE1_GROUNDFLOOR_0_0_0
  0
3DFACE
  8
BLOCK1_ZONE1
 62
  8
 10
        7.85939
 20
        8.08796
 30
        0.00000
 11
        7.85939
 21
        0.08796
 31
        0.00000
 12
       -0.14061
 22
        0.08796
 32
        0.00000
 13
       -0.14061
 23
        8.08796
 33
        0.00000
999
BLOCK1:ZONE1:BLOCK1:ZONE1_ROOF_1_0_0
  0
3DFACE
  8
BLOCK1_ZONE1
 62
 15
 10
       -0.14061
 20
        8.08796
 30
        2.30000
 11
       -0.14061
 21
        0.08796
 31
        2.30000
 12
        7.85939
 22
        0.08796
 32
        2.30000
 13
        7.85939
 23
        8.08796
 33
        2.30000
  0
ENDSEC
  0
EOF
