  0
SECTION
  2
ENTITIES
999
DXF created from EnergyPlus
999
Program Version,EnergyPlus, Version 24.2.0-94a887817b, YMD=2025.06.24 14:32
999
Polygon Action,TRIANGULATE3DFACE
999
Color Scheme,Default
999
Text - True North
  0
TEXT
  8
1
  6
Continuous
 62
  3
 10
      -11.00000
 20
        3.00000
 30
        0.10000
 40
 .25
  1
True North
 41
 0.0
  7
MONOTXT
210
0.0
220
0.0
230
1.0
999
Text - Building Title
  0
TEXT
  8
1
  6
Continuous
 62
  3
 10
      -14.00000
 20
       -1.00000
 30
        0.10000
 40
 .4
  1
Building - bungalow-2-dezoned
 41
 0.0
  7
MONOTXT
210
0.0
220
0.0
230
1.0
999
North Arrow Stem
  0
3DFACE
  8
1
 62
  3
 10
      -10.00000
 20
        3.00000
 30
        0.10000
 11
      -10.00000
 21
        3.00000
 31
        0.00000
 12
      -10.00000
 22
        0.00000
 32
        0.00000
 13
      -10.00000
 23
        0.00000
 33
        0.10000
999
North Arrow Head 1
  0
3DFACE
  8
1
 62
  3
 10
      -10.00000
 20
        3.00000
 30
        0.10000
 11
      -10.00000
 21
        3.00000
 31
        0.00000
 12
      -10.50000
 22
        2.13397
 32
        0.00000
 13
      -10.50000
 23
        2.13397
 33
        0.10000
999
North Arrow Head 2
  0
3DFACE
  8
1
 62
  3
 10
      -10.00000
 20
        3.00000
 30
        0.10000
 11
      -10.00000
 21
        3.00000
 31
        0.00000
 12
       -9.50000
 22
        2.13397
 32
        0.00000
 13
       -9.50000
 23
        2.13397
 33
        0.10000
999
North Arrow Side 1
  0
3DFACE
  8
1
 62
  3
 10
      -10.50000
 20
        4.50000
 30
        0.10000
 11
      -10.50000
 21
        4.50000
 31
        0.00000
 12
      -10.50000
 22
        3.50000
 32
        0.00000
 13
      -10.50000
 23
        3.50000
 33
        0.10000
999
North Arrow Side 2
  0
3DFACE
  8
1
 62
  3
 10
      -10.50000
 20
        4.50000
 30
        0.10000
 11
      -10.50000
 21
        4.50000
 31
        0.00000
 12
       -9.50000
 22
        3.50000
 32
        0.00000
 13
       -9.50000
 23
        3.50000
 33
        0.10000
999
North Arrow Side 3
  0
3DFACE
  8
1
 62
  3
 10
       -9.50000
 20
        4.50000
 30
        0.10000
 11
       -9.50000
 21
        4.50000
 31
        0.00000
 12
       -9.50000
 22
        3.50000
 32
        0.00000
 13
       -9.50000
 23
        3.50000
 33
        0.10000
999
Zone Names
999
Zone=1:ZZ
999
ZZ:EXT SURFACE NORTH WEST
  0
3DFACE
  8
ZZ
 62
 43
 10
        8.00000
 20
        8.00000
 30
        2.30000
 11
        8.00000
 21
        8.00000
 31
        0.00000
 12
        4.00000
 22
        8.00000
 32
        0.00000
 13
        4.00000
 23
        8.00000
 33
        2.30000
999
ZZ:EXT SURFACE NORTH EAST
  0
3DFACE
  8
ZZ
 62
 43
 10
        4.00000
 20
        8.00000
 30
        2.30000
 11
        4.00000
 21
        8.00000
 31
        0.00000
 12
        0.00000
 22
        8.00000
 32
        0.00000
 13
        0.00000
 23
        8.00000
 33
        2.30000
999
ZZ:EXT SURFACE EAST NORTH
  0
3DFACE
  8
ZZ
 62
 43
 10
        0.00000
 20
        8.00000
 30
        2.30000
 11
        0.00000
 21
        8.00000
 31
        0.00000
 12
        0.00000
 22
        4.00000
 32
        0.00000
 13
        0.00000
 23
        4.00000
 33
        2.30000
999
ZZ:EXT SURFACE EAST SOUTH
  0
3DFACE
  8
ZZ
 62
 43
 10
        0.00000
 20
        4.00000
 30
        2.30000
 11
        0.00000
 21
        4.00000
 31
        0.00000
 12
        0.00000
 22
        0.00000
 32
        0.00000
 13
        0.00000
 23
        0.00000
 33
        2.30000
999
ZZ:EXT SURFACE SOUTH EAST
  0
3DFACE
  8
ZZ
 62
 43
 10
        0.00000
 20
        0.00000
 30
        2.30000
 11
        0.00000
 21
        0.00000
 31
        0.00000
 12
        4.00000
 22
        0.00000
 32
        0.00000
 13
        4.00000
 23
        0.00000
 33
        2.30000
999
ZZ:EXT SURFACE SOUTH WEST
  0
3DFACE
  8
ZZ
 62
 43
 10
        4.00000
 20
        0.00000
 30
        2.30000
 11
        4.00000
 21
        0.00000
 31
        0.00000
 12
        8.00000
 22
        0.00000
 32
        0.00000
 13
        8.00000
 23
        0.00000
 33
        2.30000
999
ZZ:EXT SURFACE WEST SOUTH
  0
3DFACE
  8
ZZ
 62
 43
 10
        8.00000
 20
        0.00000
 30
        2.30000
 11
        8.00000
 21
        0.00000
 31
        0.00000
 12
        8.00000
 22
        4.00000
 32
        0.00000
 13
        8.00000
 23
        4.00000
 33
        2.30000
999
ZZ:EXT SURFACE WEST NORTH
  0
3DFACE
  8
ZZ
 62
 43
 10
        8.00000
 20
        4.00000
 30
        2.30000
 11
        8.00000
 21
        4.00000
 31
        0.00000
 12
        8.00000
 22
        8.00000
 32
        0.00000
 13
        8.00000
 23
        8.00000
 33
        2.30000
999
ZZ:EXT SURFACE ROOF NW
  0
3DFACE
  8
ZZ
 62
 43
 10
        4.00000
 20
        8.00000
 30
        2.30000
 11
        4.00000
 21
        4.00000
 31
        2.30000
 12
        8.00000
 22
        4.00000
 32
        2.30000
 13
        8.00000
 23
        8.00000
 33
        2.30000
999
ZZ:EXT SURFACE ROOF NE
  0
3DFACE
  8
ZZ
 62
 43
 10
        0.00000
 20
        8.00000
 30
        2.30000
 11
        0.00000
 21
        4.00000
 31
        2.30000
 12
        4.00000
 22
        4.00000
 32
        2.30000
 13
        4.00000
 23
        8.00000
 33
        2.30000
999
ZZ:EXT SURFACE ROOF SE
  0
3DFACE
  8
ZZ
 62
 43
 10
        0.00000
 20
        4.00000
 30
        2.30000
 11
        0.00000
 21
        0.00000
 31
        2.30000
 12
        4.00000
 22
        0.00000
 32
        2.30000
 13
        4.00000
 23
        4.00000
 33
        2.30000
999
ZZ:EXT SURFACE ROOF SW
  0
3DFACE
  8
ZZ
 62
 43
 10
        4.00000
 20
        4.00000
 30
        2.30000
 11
        4.00000
 21
        0.00000
 31
        2.30000
 12
        8.00000
 22
        0.00000
 32
        2.30000
 13
        8.00000
 23
        4.00000
 33
        2.30000
999
ZZ:EXT SURFACE FLOOR NW
  0
3DFACE
  8
ZZ
 62
  8
 10
        8.00000
 20
        8.00000
 30
        0.00000
 11
        8.00000
 21
        4.00000
 31
        0.00000
 12
        4.00000
 22
        4.00000
 32
        0.00000
 13
        4.00000
 23
        8.00000
 33
        0.00000
999
ZZ:EXT SURFACE FLOOR NE
  0
3DFACE
  8
ZZ
 62
  8
 10
        4.00000
 20
        8.00000
 30
        0.00000
 11
        4.00000
 21
        4.00000
 31
        0.00000
 12
        0.00000
 22
        4.00000
 32
        0.00000
 13
        0.00000
 23
        8.00000
 33
        0.00000
999
ZZ:EXT SURFACE FLOOR SE
  0
3DFACE
  8
ZZ
 62
  8
 10
        4.00000
 20
        4.00000
 30
        0.00000
 11
        4.00000
 21
        0.00000
 31
        0.00000
 12
        0.00000
 22
        0.00000
 32
        0.00000
 13
        0.00000
 23
        4.00000
 33
        0.00000
999
ZZ:EXT SURFACE FLOOR SW
  0
3DFACE
  8
ZZ
 62
  8
 10
        8.00000
 20
        4.00000
 30
        0.00000
 11
        8.00000
 21
        0.00000
 31
        0.00000
 12
        4.00000
 22
        0.00000
 32
        0.00000
 13
        4.00000
 23
        4.00000
 33
        0.00000
  0
ENDSEC
  0
EOF
